LTspice 26.0.2 for Windows
Circuit: C:\Repos\Hardware-Projects\Simulations\ltspice\Draft1.net
Start Time: Sun Jun 14 17:27:25 2026
solver = Normal
Maximum thread count: 15
tnom = 27
temp = 27
method = trap
Direct Newton iteration succeeded in finding operating point.
Total elapsed time: 0.025 seconds.

Files loaded:
C:\Repos\Hardware-Projects\Simulations\ltspice\Draft1.net

