LTspice 26.0.2 for Windows
Circuit: C:\Repos\Hardware-Projects\Simulations\ltspice\RCFilterWithRealValues.net
Start Time: Sun Jun 14 17:36:36 2026
solver = Normal
Maximum thread count: 15
tnom = 27
temp = 27
method = trap
Direct Newton iteration succeeded in finding operating point.
Total elapsed time: 0.033 seconds.

Files loaded:
C:\Repos\Hardware-Projects\Simulations\ltspice\RCFilterWithRealValues.net

